previews/PR152/power-simulations-dynamics.log
┌ Info: 2021-10-14T20:21:24.279 [2826:1]: Validating connectivity with Goderya algorithm
└ @ PowerSystems /home/runner/.julia/packages/PowerSystems/dwVty/src/utils/network_calculations/ybus_calculations.jl:296
┌ Info: 2021-10-14T20:21:24.519 [2826:1]: The System has no islands
└ @ PowerSystems /home/runner/.julia/packages/PowerSystems/dwVty/src/utils/network_calculations/ybus_calculations.jl:242
┌ Debug: 2021-10-14T20:21:24.519 [2826:1]: System doesn't contain Dynamic Branches
└ @ PowerSimulationsDynamics /home/runner/work/PowerSimulationsDynamics.jl/PowerSimulationsDynamics.jl/src/base/simulation_inputs.jl:207
┌ Debug: 2021-10-14T20:21:24.714 [2826:1]: Wrapping generator-102-1
└ @ PowerSimulationsDynamics /home/runner/work/PowerSimulationsDynamics.jl/PowerSimulationsDynamics.jl/src/base/simulation_inputs.jl:148
┌ Debug: 2021-10-14T20:21:24.758 [2826:1]: ix_range=5:6 ode_range=1:2 inner_vars_range= 1:9
└ @ PowerSimulationsDynamics /home/runner/work/PowerSimulationsDynamics.jl/PowerSimulationsDynamics.jl/src/base/simulation_inputs.jl:157
┌ Debug: 2021-10-14T20:21:26.794 [2826:1]: Using default mass matrix entries TGFixed
└ @ PowerSimulationsDynamics /home/runner/work/PowerSimulationsDynamics.jl/PowerSimulationsDynamics.jl/src/models/generator_models/tg_models.jl:6
┌ Debug: 2021-10-14T20:21:26.794 [2826:1]: Using default mass matrix entries PSSFixed
└ @ PowerSimulationsDynamics /home/runner/work/PowerSimulationsDynamics.jl/PowerSimulationsDynamics.jl/src/models/generator_models/pss_models.jl:6
┌ Debug: 2021-10-14T20:21:26.794 [2826:1]: Using default mass matrix entries AVRFixed
└ @ PowerSimulationsDynamics /home/runner/work/PowerSimulationsDynamics.jl/PowerSimulationsDynamics.jl/src/models/generator_models/avr_models.jl:6
┌ Debug: 2021-10-14T20:21:26.794 [2826:1]: Using default mass matrix entries BaseMachine
└ @ PowerSimulationsDynamics /home/runner/work/PowerSimulationsDynamics.jl/PowerSimulationsDynamics.jl/src/models/generator_models/machine_models.jl:6
┌ Debug: 2021-10-14T20:21:26.794 [2826:1]: Using default mass matrix entries SingleMass
└ @ PowerSimulationsDynamics /home/runner/work/PowerSimulationsDynamics.jl/PowerSimulationsDynamics.jl/src/models/generator_models/shaft_models.jl:6
┌ Info: 2021-10-14T20:21:27.099 [2826:1]: The reference Bus has a Source connected to it. The frequency reference model will change to ConstantFrequency
└ @ PowerSimulationsDynamics /home/runner/work/PowerSimulationsDynamics.jl/PowerSimulationsDynamics.jl/src/base/frequency_reference.jl:70
┌ Debug: 2021-10-14T20:21:27.115 [2826:1]: Simulation Inputs Created
└ @ PowerSimulationsDynamics /home/runner/work/PowerSimulationsDynamics.jl/PowerSimulationsDynamics.jl/src/base/simulation.jl:184
┌ Info: 2021-10-14T20:21:27.115 [2826:1]: Pre-Initializing Simulation States
└ @ PowerSimulationsDynamics /home/runner/work/PowerSimulationsDynamics.jl/PowerSimulationsDynamics.jl/src/base/simulation.jl:226
┌ Debug: 2021-10-14T20:21:27.115 [2826:1]: Start state intialization routine
└ @ PowerSimulationsDynamics /home/runner/work/PowerSimulationsDynamics.jl/PowerSimulationsDynamics.jl/src/base/simulation_initialization.jl:131
┌ Info: 2021-10-14T20:21:27.115 [2826:1]: Unit System changed to UnitSystem.SYSTEM_BASE = 0
└ @ PowerSystems /home/runner/.julia/packages/PowerSystems/dwVty/src/base.jl:340
┌ Info: 2021-10-14T20:21:27.115 [2826:1]: Validating connectivity with Goderya algorithm
└ @ PowerSystems /home/runner/.julia/packages/PowerSystems/dwVty/src/utils/network_calculations/ybus_calculations.jl:296
┌ Info: 2021-10-14T20:21:27.115 [2826:1]: The System has no islands
└ @ PowerSystems /home/runner/.julia/packages/PowerSystems/dwVty/src/utils/network_calculations/ybus_calculations.jl:242
┌ Info: 2021-10-14T20:21:29.015 [2826:1]: PowerFlow solve converged, the results have been stored in the system
└ @ PowerSystems /home/runner/.julia/packages/PowerSystems/dwVty/src/utils/power_flow.jl:313
┌ Info: 2021-10-14T20:21:29.016 [2826:1]: Unit System changed to UnitSystem.DEVICE_BASE = 1
└ @ PowerSystems /home/runner/.julia/packages/PowerSystems/dwVty/src/base.jl:346
┌ Debug: 2021-10-14T20:21:29.016 [2826:1]: Updating bus voltage magnitude and angle to match power flow result
└ @ PowerSimulationsDynamics /home/runner/work/PowerSimulationsDynamics.jl/PowerSimulationsDynamics.jl/src/base/simulation_initialization.jl:12
┌ Debug: 2021-10-14T20:21:29.016 [2826:1]: BUS 1 V_r = 1.05, V_i = 0.0
└ @ PowerSimulationsDynamics /home/runner/work/PowerSimulationsDynamics.jl/PowerSimulationsDynamics.jl/src/base/simulation_initialization.jl:18
┌ Debug: 2021-10-14T20:21:29.016 [2826:1]: BUS 2 V_r = 1.039727418725999, V_i = 0.023809551641536846
└ @ PowerSimulationsDynamics /home/runner/work/PowerSimulationsDynamics.jl/PowerSimulationsDynamics.jl/src/base/simulation_initialization.jl:18
┌ Debug: 2021-10-14T20:21:29.016 [2826:1]: Updating Source internal voltage magnitude and angle
└ @ PowerSimulationsDynamics /home/runner/work/PowerSimulationsDynamics.jl/PowerSimulationsDynamics.jl/src/base/simulation_initialization.jl:24
┌ Debug: 2021-10-14T20:21:31.854 [2826:1]: Updating Dynamic Injection Component Initial Guess
└ @ PowerSimulationsDynamics /home/runner/work/PowerSimulationsDynamics.jl/PowerSimulationsDynamics.jl/src/base/simulation_initialization.jl:45
┌ Debug: 2021-10-14T20:21:31.866 [2826:1]: Initializing generator-102-1 - DynamicGenerator{BaseMachine, SingleMass, AVRFixed, TGFixed, PSSFixed}
└ @ PowerSimulationsDynamics /home/runner/work/PowerSimulationsDynamics.jl/PowerSimulationsDynamics.jl/src/base/simulation_initialization.jl:54
┌ Debug: 2021-10-14T20:21:32.341 [2826:1]: No Dynamic Branches in the system
└ @ PowerSimulationsDynamics /home/runner/work/PowerSimulationsDynamics.jl/PowerSimulationsDynamics.jl/src/base/simulation_initialization.jl:147
┌ Debug: 2021-10-14T20:21:32.541 [2826:1]: injection ode size = 2 branches ode size = 0
└ @ PowerSimulationsDynamics /home/runner/work/PowerSimulationsDynamics.jl/PowerSimulationsDynamics.jl/src/base/caches.jl:25
┌ Debug: 2021-10-14T20:21:38.638 [2826:1]: Evaluating Jacobian Function
└ @ PowerSimulationsDynamics /home/runner/work/PowerSimulationsDynamics.jl/PowerSimulationsDynamics.jl/src/base/jacobian.jl:47
┌ Debug: 2021-10-14T20:21:39.527 [2826:1]: Evaluating Jacobian Function
└ @ PowerSimulationsDynamics /home/runner/work/PowerSimulationsDynamics.jl/PowerSimulationsDynamics.jl/src/base/jacobian.jl:47
┌ Debug: 2021-10-14T20:21:39.528 [2826:1]: Evaluating Jacobian Function
└ @ PowerSimulationsDynamics /home/runner/work/PowerSimulationsDynamics.jl/PowerSimulationsDynamics.jl/src/base/jacobian.jl:47
┌ Debug: 2021-10-14T20:21:40.001 [2826:1]: Evaluating Jacobian Function
└ @ PowerSimulationsDynamics /home/runner/work/PowerSimulationsDynamics.jl/PowerSimulationsDynamics.jl/src/base/jacobian.jl:47
┌ Debug: 2021-10-14T20:21:40.144 [2826:1]: injection ode size = 2 branches ode size = 0
└ @ PowerSimulationsDynamics /home/runner/work/PowerSimulationsDynamics.jl/PowerSimulationsDynamics.jl/src/base/caches.jl:83
┌ Debug: 2021-10-14T20:21:41.672 [2826:1]: Start NLSolve System Run
└ @ PowerSimulationsDynamics /home/runner/work/PowerSimulationsDynamics.jl/PowerSimulationsDynamics.jl/src/base/nlsolve_wrapper.jl:85
┌ Debug: 2021-10-14T20:21:41.772 [2826:1]: NLsolve initial guess [1.05, 1.039727418725999, 0.0, 0.023809551641536846, 0.539920981973487, 1.0]
└ @ PowerSimulationsDynamics /home/runner/work/PowerSimulationsDynamics.jl/PowerSimulationsDynamics.jl/src/base/nlsolve_wrapper.jl:91
┌ Debug: 2021-10-14T20:21:41.986 [2826:1]: NLsolve initial residual [5.566417952129754e-7, -5.619941829682062e-7, 6.432003374357009e-9, -6.373557681627062e-9, 0.0, 3.795671951247855e-14]
└ @ PowerSimulationsDynamics /home/runner/work/PowerSimulationsDynamics.jl/PowerSimulationsDynamics.jl/src/base/nlsolve_wrapper.jl:95
┌ Debug: 2021-10-14T20:21:42.013 [2826:1]: Evaluating Jacobian Function
└ @ PowerSimulationsDynamics /home/runner/work/PowerSimulationsDynamics.jl/PowerSimulationsDynamics.jl/src/base/jacobian.jl:47
┌ Debug: 2021-10-14T20:21:42.017 [2826:1]: Evaluating Jacobian Function
└ @ PowerSimulationsDynamics /home/runner/work/PowerSimulationsDynamics.jl/PowerSimulationsDynamics.jl/src/base/jacobian.jl:47
┌ Info: 2021-10-14T20:21:42.017 [2826:1]: Initialization succeeded with a tolerance of 1.0e-9 using solver trust_region. Saving solution.
└ @ PowerSimulationsDynamics /home/runner/work/PowerSimulationsDynamics.jl/PowerSimulationsDynamics.jl/src/base/nlsolve_wrapper.jl:62
┌ Debug: 2021-10-14T20:21:42.017 [2826:1]: Write initial guess vector using trust_region with tol = 1.0e-9 convergence = true
└ @ PowerSimulationsDynamics /home/runner/work/PowerSimulationsDynamics.jl/PowerSimulationsDynamics.jl/src/base/nlsolve_wrapper.jl:109
┌ Info: 2021-10-14T20:21:42.017 [2826:1]: Attaching Perturbations
└ @ PowerSimulationsDynamics /home/runner/work/PowerSimulationsDynamics.jl/PowerSimulationsDynamics.jl/src/base/simulation.jl:249
┌ Debug: 2021-10-14T20:21:42.167 [2826:1]: BranchTrip(1.0, Line, "BUS 1-BUS 2-i_1")
└ @ PowerSimulationsDynamics /home/runner/work/PowerSimulationsDynamics.jl/PowerSimulationsDynamics.jl/src/base/simulation.jl:260
┌ Info: 2021-10-14T20:21:42.912 [2826:1]: Simulations status = BUILT
└ @ PowerSimulationsDynamics /home/runner/work/PowerSimulationsDynamics.jl/PowerSimulationsDynamics.jl/src/base/simulation.jl:367
┌ Debug: 2021-10-14T20:21:57.075 [2826:1]: status before execute
│   sim.status = BUILT
└ @ PowerSimulationsDynamics /home/runner/work/PowerSimulationsDynamics.jl/PowerSimulationsDynamics.jl/src/base/simulation.jl:420
┌ LogLevel(-1): 2021-10-14T20:22:01.762 [2826:1]: ODE
│   progress = 0
└ @ Sundials /home/runner/.julia/packages/Sundials/sg9S0/src/common_interface/solve.jl:1063
┌ LogLevel(-1): 2021-10-14T20:22:03.955 [2826:1]: ODE
│   message = dt=0.0
t=0.0
max u=1.0500000021749645
│   progress = 0.0
└ @ Sundials /home/runner/.julia/packages/Sundials/sg9S0/src/common_interface/solve.jl:1475
┌ LogLevel(-1): 2021-10-14T20:22:03.984 [2826:1]: ODE
│   message = dt=0.0
t=0.001
max u=1.0500000021749651
│   progress = 3.3333333333333335e-5
└ @ Sundials /home/runner/.julia/packages/Sundials/sg9S0/src/common_interface/solve.jl:1475
┌ LogLevel(-1): 2021-10-14T20:22:03.984 [2826:1]: ODE
│   message = dt=0.0
t=0.002
max u=1.0500000021749636
│   progress = 6.666666666666667e-5
└ @ Sundials /home/runner/.julia/packages/Sundials/sg9S0/src/common_interface/solve.jl:1475
┌ LogLevel(-1): 2021-10-14T20:22:03.984 [2826:1]: ODE
│   message = dt=0.0
t=0.004
max u=1.0500000021749645
│   progress = 0.00013333333333333334
└ @ Sundials /home/runner/.julia/packages/Sundials/sg9S0/src/common_interface/solve.jl:1475
┌ LogLevel(-1): 2021-10-14T20:22:03.984 [2826:1]: ODE
│   message = dt=0.0
t=0.008
max u=1.0500000021749651
│   progress = 0.0002666666666666667
└ @ Sundials /home/runner/.julia/packages/Sundials/sg9S0/src/common_interface/solve.jl:1475
┌ LogLevel(-1): 2021-10-14T20:22:03.984 [2826:1]: ODE
│   message = dt=0.0
t=0.016
max u=1.050000002174965
│   progress = 0.0005333333333333334
└ @ Sundials /home/runner/.julia/packages/Sundials/sg9S0/src/common_interface/solve.jl:1475
┌ LogLevel(-1): 2021-10-14T20:22:03.984 [2826:1]: ODE
│   message = dt=0.0
t=0.032
max u=1.0500000021749647
│   progress = 0.0010666666666666667
└ @ Sundials /home/runner/.julia/packages/Sundials/sg9S0/src/common_interface/solve.jl:1475
┌ LogLevel(-1): 2021-10-14T20:22:03.984 [2826:1]: ODE
│   message = dt=0.0
t=0.052000000000000005
max u=1.0500000021749643
│   progress = 0.0017333333333333335
└ @ Sundials /home/runner/.julia/packages/Sundials/sg9S0/src/common_interface/solve.jl:1475
┌ LogLevel(-1): 2021-10-14T20:22:03.984 [2826:1]: ODE
│   message = dt=0.0
t=0.07200000000000001
max u=1.050000002174965
│   progress = 0.0024000000000000002
└ @ Sundials /home/runner/.julia/packages/Sundials/sg9S0/src/common_interface/solve.jl:1475
┌ LogLevel(-1): 2021-10-14T20:22:03.984 [2826:1]: ODE
│   message = dt=0.0
t=0.09200000000000001
max u=1.050000002174965
│   progress = 0.003066666666666667
└ @ Sundials /home/runner/.julia/packages/Sundials/sg9S0/src/common_interface/solve.jl:1475
┌ LogLevel(-1): 2021-10-14T20:22:03.984 [2826:1]: ODE
│   message = dt=0.0
t=0.11200000000000002
max u=1.0500000021749651
│   progress = 0.0037333333333333337
└ @ Sundials /home/runner/.julia/packages/Sundials/sg9S0/src/common_interface/solve.jl:1475
┌ LogLevel(-1): 2021-10-14T20:22:03.985 [2826:1]: ODE
│   message = dt=0.0
t=0.132
max u=1.0500000021749643
│   progress = 0.0044
└ @ Sundials /home/runner/.julia/packages/Sundials/sg9S0/src/common_interface/solve.jl:1475
┌ LogLevel(-1): 2021-10-14T20:22:03.985 [2826:1]: ODE
│   message = dt=0.0
t=0.152
max u=1.0500000021749647
│   progress = 0.005066666666666666
└ @ Sundials /home/runner/.julia/packages/Sundials/sg9S0/src/common_interface/solve.jl:1475
┌ LogLevel(-1): 2021-10-14T20:22:03.985 [2826:1]: ODE
│   message = dt=0.0
t=0.172
max u=1.0500000021749645
│   progress = 0.0057333333333333325
└ @ Sundials /home/runner/.julia/packages/Sundials/sg9S0/src/common_interface/solve.jl:1475
┌ LogLevel(-1): 2021-10-14T20:22:03.985 [2826:1]: ODE
│   message = dt=0.0
t=0.19199999999999998
max u=1.050000002174965
│   progress = 0.0063999999999999994
└ @ Sundials /home/runner/.julia/packages/Sundials/sg9S0/src/common_interface/solve.jl:1475
┌ LogLevel(-1): 2021-10-14T20:22:03.985 [2826:1]: ODE
│   message = dt=0.0
t=0.21199999999999997
max u=1.050000002174965
│   progress = 0.0070666666666666655
└ @ Sundials /home/runner/.julia/packages/Sundials/sg9S0/src/common_interface/solve.jl:1475
┌ LogLevel(-1): 2021-10-14T20:22:03.985 [2826:1]: ODE
│   message = dt=0.0
t=0.23199999999999996
max u=1.0500000021749645
│   progress = 0.007733333333333332
└ @ Sundials /home/runner/.julia/packages/Sundials/sg9S0/src/common_interface/solve.jl:1475
┌ LogLevel(-1): 2021-10-14T20:22:03.985 [2826:1]: ODE
│   message = dt=0.0
t=0.25199999999999995
max u=1.0500000021749651
│   progress = 0.008399999999999998
└ @ Sundials /home/runner/.julia/packages/Sundials/sg9S0/src/common_interface/solve.jl:1475
┌ LogLevel(-1): 2021-10-14T20:22:03.985 [2826:1]: ODE
│   message = dt=0.0
t=0.27199999999999996
max u=1.050000002174965
│   progress = 0.009066666666666666
└ @ Sundials /home/runner/.julia/packages/Sundials/sg9S0/src/common_interface/solve.jl:1475
┌ LogLevel(-1): 2021-10-14T20:22:03.985 [2826:1]: ODE
│   message = dt=0.0
t=0.292
max u=1.0500000021749645
│   progress = 0.009733333333333333
└ @ Sundials /home/runner/.julia/packages/Sundials/sg9S0/src/common_interface/solve.jl:1475
┌ LogLevel(-1): 2021-10-14T20:22:03.985 [2826:1]: ODE
│   message = dt=0.0
t=0.312
max u=1.0500000021749645
│   progress = 0.0104
└ @ Sundials /home/runner/.julia/packages/Sundials/sg9S0/src/common_interface/solve.jl:1475
┌ LogLevel(-1): 2021-10-14T20:22:03.985 [2826:1]: ODE
│   message = dt=0.0
t=0.332
max u=1.0500000021749647
│   progress = 0.011066666666666667
└ @ Sundials /home/runner/.julia/packages/Sundials/sg9S0/src/common_interface/solve.jl:1475
┌ LogLevel(-1): 2021-10-14T20:22:03.985 [2826:1]: ODE
│   message = dt=0.0
t=0.35200000000000004
max u=1.0500000021749647
│   progress = 0.011733333333333335
└ @ Sundials /home/runner/.julia/packages/Sundials/sg9S0/src/common_interface/solve.jl:1475
┌ LogLevel(-1): 2021-10-14T20:22:03.985 [2826:1]: ODE
│   message = dt=0.0
t=0.37200000000000005
max u=1.0500000021749651
│   progress = 0.012400000000000001
└ @ Sundials /home/runner/.julia/packages/Sundials/sg9S0/src/common_interface/solve.jl:1475
┌ LogLevel(-1): 2021-10-14T20:22:03.985 [2826:1]: ODE
│   message = dt=0.0
t=0.39200000000000007
max u=1.050000002174964
│   progress = 0.01306666666666667
└ @ Sundials /home/runner/.julia/packages/Sundials/sg9S0/src/common_interface/solve.jl:1475
┌ LogLevel(-1): 2021-10-14T20:22:03.985 [2826:1]: ODE
│   message = dt=0.0
t=0.4120000000000001
max u=1.0500000021749647
│   progress = 0.013733333333333337
└ @ Sundials /home/runner/.julia/packages/Sundials/sg9S0/src/common_interface/solve.jl:1475
┌ LogLevel(-1): 2021-10-14T20:22:03.985 [2826:1]: ODE
│   message = dt=0.0
t=0.4320000000000001
max u=1.0500000021749645
│   progress = 0.014400000000000003
└ @ Sundials /home/runner/.julia/packages/Sundials/sg9S0/src/common_interface/solve.jl:1475
┌ LogLevel(-1): 2021-10-14T20:22:03.986 [2826:1]: ODE
│   message = dt=0.0
t=0.4520000000000001
max u=1.050000002174965
│   progress = 0.015066666666666671
└ @ Sundials /home/runner/.julia/packages/Sundials/sg9S0/src/common_interface/solve.jl:1475
┌ LogLevel(-1): 2021-10-14T20:22:03.986 [2826:1]: ODE
│   message = dt=0.0
t=0.47200000000000014
max u=1.0500000021749647
│   progress = 0.01573333333333334
└ @ Sundials /home/runner/.julia/packages/Sundials/sg9S0/src/common_interface/solve.jl:1475
┌ LogLevel(-1): 2021-10-14T20:22:03.986 [2826:1]: ODE
│   message = dt=0.0
t=0.49200000000000016
max u=1.0500000021749643
│   progress = 0.016400000000000005
└ @ Sundials /home/runner/.julia/packages/Sundials/sg9S0/src/common_interface/solve.jl:1475
┌ LogLevel(-1): 2021-10-14T20:22:03.986 [2826:1]: ODE
│   message = dt=0.0
t=0.5120000000000001
max u=1.050000002174965
│   progress = 0.01706666666666667
└ @ Sundials /home/runner/.julia/packages/Sundials/sg9S0/src/common_interface/solve.jl:1475
┌ LogLevel(-1): 2021-10-14T20:22:03.986 [2826:1]: ODE
│   message = dt=0.0
t=0.5320000000000001
max u=1.050000002174965
│   progress = 0.017733333333333337
└ @ Sundials /home/runner/.julia/packages/Sundials/sg9S0/src/common_interface/solve.jl:1475
┌ LogLevel(-1): 2021-10-14T20:22:03.986 [2826:1]: ODE
│   message = dt=0.0
t=0.5520000000000002
max u=1.050000002174964
│   progress = 0.018400000000000007
└ @ Sundials /home/runner/.julia/packages/Sundials/sg9S0/src/common_interface/solve.jl:1475
┌ LogLevel(-1): 2021-10-14T20:22:03.986 [2826:1]: ODE
│   message = dt=0.0
t=0.5720000000000002
max u=1.050000002174965
│   progress = 0.019066666666666673
└ @ Sundials /home/runner/.julia/packages/Sundials/sg9S0/src/common_interface/solve.jl:1475
┌ LogLevel(-1): 2021-10-14T20:22:03.986 [2826:1]: ODE
│   message = dt=0.0
t=0.5920000000000002
max u=1.050000002174964
│   progress = 0.01973333333333334
└ @ Sundials /home/runner/.julia/packages/Sundials/sg9S0/src/common_interface/solve.jl:1475
┌ LogLevel(-1): 2021-10-14T20:22:03.986 [2826:1]: ODE
│   message = dt=0.0
t=0.6120000000000002
max u=1.0500000021749651
│   progress = 0.02040000000000001
└ @ Sundials /home/runner/.julia/packages/Sundials/sg9S0/src/common_interface/solve.jl:1475
┌ LogLevel(-1): 2021-10-14T20:22:03.986 [2826:1]: ODE
│   message = dt=0.0
t=0.6320000000000002
max u=1.0500000021749643
│   progress = 0.021066666666666675
└ @ Sundials /home/runner/.julia/packages/Sundials/sg9S0/src/common_interface/solve.jl:1475
┌ LogLevel(-1): 2021-10-14T20:22:03.986 [2826:1]: ODE
│   message = dt=0.0
t=0.6520000000000002
max u=1.0500000021749654
│   progress = 0.02173333333333334
└ @ Sundials /home/runner/.julia/packages/Sundials/sg9S0/src/common_interface/solve.jl:1475
┌ LogLevel(-1): 2021-10-14T20:22:03.986 [2826:1]: ODE
│   message = dt=0.0
t=0.6720000000000003
max u=1.0500000021749645
│   progress = 0.02240000000000001
└ @ Sundials /home/runner/.julia/packages/Sundials/sg9S0/src/common_interface/solve.jl:1475
┌ LogLevel(-1): 2021-10-14T20:22:03.986 [2826:1]: ODE
│   message = dt=0.0
t=0.6920000000000003
max u=1.0500000021749654
│   progress = 0.023066666666666676
└ @ Sundials /home/runner/.julia/packages/Sundials/sg9S0/src/common_interface/solve.jl:1475
┌ LogLevel(-1): 2021-10-14T20:22:03.986 [2826:1]: ODE
│   message = dt=0.0
t=0.7120000000000003
max u=1.0500000021749645
│   progress = 0.023733333333333342
└ @ Sundials /home/runner/.julia/packages/Sundials/sg9S0/src/common_interface/solve.jl:1475
┌ LogLevel(-1): 2021-10-14T20:22:03.986 [2826:1]: ODE
│   message = dt=0.0
t=0.7320000000000003
max u=1.0500000021749651
│   progress = 0.024400000000000012
└ @ Sundials /home/runner/.julia/packages/Sundials/sg9S0/src/common_interface/solve.jl:1475
┌ LogLevel(-1): 2021-10-14T20:22:03.986 [2826:1]: ODE
│   message = dt=0.0
t=0.7520000000000003
max u=1.0500000021749647
│   progress = 0.025066666666666678
└ @ Sundials /home/runner/.julia/packages/Sundials/sg9S0/src/common_interface/solve.jl:1475
┌ LogLevel(-1): 2021-10-14T20:22:03.987 [2826:1]: ODE
│   message = dt=0.0
t=0.7720000000000004
max u=1.0500000021749654
│   progress = 0.025733333333333344
└ @ Sundials /home/runner/.julia/packages/Sundials/sg9S0/src/common_interface/solve.jl:1475
┌ LogLevel(-1): 2021-10-14T20:22:03.987 [2826:1]: ODE
│   message = dt=0.0
t=0.7920000000000004
max u=1.0500000021749645
│   progress = 0.026400000000000014
└ @ Sundials /home/runner/.julia/packages/Sundials/sg9S0/src/common_interface/solve.jl:1475
┌ LogLevel(-1): 2021-10-14T20:22:03.987 [2826:1]: ODE
│   message = dt=0.0
t=0.8120000000000004
max u=1.0500000021749656
│   progress = 0.02706666666666668
└ @ Sundials /home/runner/.julia/packages/Sundials/sg9S0/src/common_interface/solve.jl:1475
┌ LogLevel(-1): 2021-10-14T20:22:03.987 [2826:1]: ODE
│   message = dt=0.0
t=0.8320000000000004
max u=1.0500000021749645
│   progress = 0.027733333333333346
└ @ Sundials /home/runner/.julia/packages/Sundials/sg9S0/src/common_interface/solve.jl:1475
┌ LogLevel(-1): 2021-10-14T20:22:03.987 [2826:1]: ODE
│   message = dt=0.0
t=0.8520000000000004
max u=1.0500000021749647
│   progress = 0.028400000000000016
└ @ Sundials /home/runner/.julia/packages/Sundials/sg9S0/src/common_interface/solve.jl:1475
┌ LogLevel(-1): 2021-10-14T20:22:03.987 [2826:1]: ODE
│   message = dt=0.0
t=0.8720000000000004
max u=1.0500000021749647
│   progress = 0.02906666666666668
└ @ Sundials /home/runner/.julia/packages/Sundials/sg9S0/src/common_interface/solve.jl:1475
┌ LogLevel(-1): 2021-10-14T20:22:03.987 [2826:1]: ODE
│   message = dt=0.0
t=0.8920000000000005
max u=1.0500000021749638
│   progress = 0.029733333333333348
└ @ Sundials /home/runner/.julia/packages/Sundials/sg9S0/src/common_interface/solve.jl:1475
┌ LogLevel(-1): 2021-10-14T20:22:03.987 [2826:1]: ODE
│   message = dt=0.0
t=0.9120000000000005
max u=1.0500000021749647
│   progress = 0.030400000000000017
└ @ Sundials /home/runner/.julia/packages/Sundials/sg9S0/src/common_interface/solve.jl:1475
┌ LogLevel(-1): 2021-10-14T20:22:03.987 [2826:1]: ODE
│   message = dt=0.0
t=0.9320000000000005
max u=1.050000002174965
│   progress = 0.031066666666666683
└ @ Sundials /home/runner/.julia/packages/Sundials/sg9S0/src/common_interface/solve.jl:1475
┌ LogLevel(-1): 2021-10-14T20:22:03.987 [2826:1]: ODE
│   message = dt=0.0
t=0.9520000000000005
max u=1.050000002174964
│   progress = 0.03173333333333335
└ @ Sundials /home/runner/.julia/packages/Sundials/sg9S0/src/common_interface/solve.jl:1475
┌ LogLevel(-1): 2021-10-14T20:22:03.987 [2826:1]: ODE
│   message = dt=0.0
t=0.9720000000000005
max u=1.0500000021749643
│   progress = 0.03240000000000002
└ @ Sundials /home/runner/.julia/packages/Sundials/sg9S0/src/common_interface/solve.jl:1475
┌ LogLevel(-1): 2021-10-14T20:22:03.987 [2826:1]: ODE
│   message = dt=0.0
t=0.9920000000000005
max u=1.0500000021749643
│   progress = 0.03306666666666668
└ @ Sundials /home/runner/.julia/packages/Sundials/sg9S0/src/common_interface/solve.jl:1475
┌ Debug: 2021-10-14T20:22:03.987 [2826:1]: Tripping line BUS 1-BUS 2-i_1
└ @ PowerSimulationsDynamics /home/runner/work/PowerSimulationsDynamics.jl/PowerSimulationsDynamics.jl/src/base/perturbations.jl:68
┌ LogLevel(-1): 2021-10-14T20:22:04.092 [2826:1]: ODE
│   message = dt=0.0
t=1.0
max u=1.0464612839687095
│   progress = 0.03333333333333333
└ @ Sundials /home/runner/.julia/packages/Sundials/sg9S0/src/common_interface/solve.jl:1475
┌ LogLevel(-1): 2021-10-14T20:22:04.092 [2826:1]: ODE
│   message = dt=0.0
t=1.0070689494472649
max u=1.0464720883134206
│   progress = 0.033568964981575494
└ @ Sundials /home/runner/.julia/packages/Sundials/sg9S0/src/common_interface/solve.jl:1475
┌ LogLevel(-1): 2021-10-14T20:22:04.092 [2826:1]: ODE
│   message = dt=0.0
t=1.0141378988945298
max u=1.0464882359604115
│   progress = 0.033804596629817656
└ @ Sundials /home/runner/.julia/packages/Sundials/sg9S0/src/common_interface/solve.jl:1475
┌ LogLevel(-1): 2021-10-14T20:22:04.092 [2826:1]: ODE
│   message = dt=0.0
t=1.0212068483417946
max u=1.0465328567980392
│   progress = 0.034040228278059824
└ @ Sundials /home/runner/.julia/packages/Sundials/sg9S0/src/common_interface/solve.jl:1475
┌ LogLevel(-1): 2021-10-14T20:22:04.093 [2826:1]: ODE
│   message = dt=0.0
t=1.0353447472363244
max u=1.0465965144033733
│   progress = 0.03451149157454415
└ @ Sundials /home/runner/.julia/packages/Sundials/sg9S0/src/common_interface/solve.jl:1475
┌ LogLevel(-1): 2021-10-14T20:22:04.093 [2826:1]: ODE
│   message = dt=0.0
t=1.0494826461308542
max u=1.0466799538842155
│   progress = 0.03498275487102847
└ @ Sundials /home/runner/.julia/packages/Sundials/sg9S0/src/common_interface/solve.jl:1475
┌ LogLevel(-1): 2021-10-14T20:22:04.093 [2826:1]: ODE
│   message = dt=0.0
t=1.063620545025384
max u=1.0468303402674684
│   progress = 0.0354540181675128
└ @ Sundials /home/runner/.julia/packages/Sundials/sg9S0/src/common_interface/solve.jl:1475
┌ LogLevel(-1): 2021-10-14T20:22:04.093 [2826:1]: ODE
│   message = dt=0.0
t=1.083620545025384
max u=1.04701588706606
│   progress = 0.03612068483417947
└ @ Sundials /home/runner/.julia/packages/Sundials/sg9S0/src/common_interface/solve.jl:1475
┌ LogLevel(-1): 2021-10-14T20:22:04.093 [2826:1]: ODE
│   message = dt=0.0
t=1.103620545025384
max u=1.0472330670907792
│   progress = 0.03678735150084613
└ @ Sundials /home/runner/.julia/packages/Sundials/sg9S0/src/common_interface/solve.jl:1475
┌ LogLevel(-1): 2021-10-14T20:22:04.093 [2826:1]: ODE
│   message = dt=0.0
t=1.123620545025384
max u=1.0474778636959479
│   progress = 0.0374540181675128
└ @ Sundials /home/runner/.julia/packages/Sundials/sg9S0/src/common_interface/solve.jl:1475
┌ LogLevel(-1): 2021-10-14T20:22:04.093 [2826:1]: ODE
│   message = dt=0.0
t=1.143620545025384
max u=1.0477466823338577
│   progress = 0.03812068483417947
└ @ Sundials /home/runner/.julia/packages/Sundials/sg9S0/src/common_interface/solve.jl:1475
┌ LogLevel(-1): 2021-10-14T20:22:04.093 [2826:1]: ODE
│   message = dt=0.0
t=1.163620545025384
max u=1.0480343740741107
│   progress = 0.03878735150084613
└ @ Sundials /home/runner/.julia/packages/Sundials/sg9S0/src/common_interface/solve.jl:1475
┌ LogLevel(-1): 2021-10-14T20:22:04.093 [2826:1]: ODE
│   message = dt=0.0
t=1.183620545025384
max u=1.0483360983625203
│   progress = 0.0394540181675128
└ @ Sundials /home/runner/.julia/packages/Sundials/sg9S0/src/common_interface/solve.jl:1475
┌ LogLevel(-1): 2021-10-14T20:22:04.093 [2826:1]: ODE
│   message = dt=0.0
t=1.203620545025384
max u=1.0486468089767775
│   progress = 0.04012068483417947
└ @ Sundials /home/runner/.julia/packages/Sundials/sg9S0/src/common_interface/solve.jl:1475
┌ LogLevel(-1): 2021-10-14T20:22:04.093 [2826:1]: ODE
│   message = dt=0.0
t=1.223620545025384
max u=1.0489614976086084
│   progress = 0.040787351500846135
└ @ Sundials /home/runner/.julia/packages/Sundials/sg9S0/src/common_interface/solve.jl:1475
┌ LogLevel(-1): 2021-10-14T20:22:04.093 [2826:1]: ODE
│   message = dt=0.0
t=1.243620545025384
max u=1.0492753090278493
│   progress = 0.041454018167512804
└ @ Sundials /home/runner/.julia/packages/Sundials/sg9S0/src/common_interface/solve.jl:1475
┌ LogLevel(-1): 2021-10-14T20:22:04.093 [2826:1]: ODE
│   message = dt=0.0
t=1.2636205450253841
max u=1.049583698784965
│   progress = 0.042120684834179474
└ @ Sundials /home/runner/.julia/packages/Sundials/sg9S0/src/common_interface/solve.jl:1475
┌ LogLevel(-1): 2021-10-14T20:22:04.093 [2826:1]: ODE
│   message = dt=0.0
t=1.2836205450253841
max u=1.0498823052048674
│   progress = 0.04278735150084614
└ @ Sundials /home/runner/.julia/packages/Sundials/sg9S0/src/common_interface/solve.jl:1475
┌ LogLevel(-1): 2021-10-14T20:22:04.093 [2826:1]: ODE
│   message = dt=0.0
t=1.3036205450253842
max u=1.050166984041377
│   progress = 0.043454018167512806
└ @ Sundials /home/runner/.julia/packages/Sundials/sg9S0/src/common_interface/solve.jl:1475
┌ LogLevel(-1): 2021-10-14T20:22:04.094 [2826:1]: ODE
│   message = dt=0.0
t=1.3236205450253842
max u=1.0504341895618614
│   progress = 0.044120684834179476
└ @ Sundials /home/runner/.julia/packages/Sundials/sg9S0/src/common_interface/solve.jl:1475
┌ LogLevel(-1): 2021-10-14T20:22:04.094 [2826:1]: ODE
│   message = dt=0.0
t=1.3436205450253842
max u=1.05068077488453
│   progress = 0.04478735150084614
└ @ Sundials /home/runner/.julia/packages/Sundials/sg9S0/src/common_interface/solve.jl:1475
┌ LogLevel(-1): 2021-10-14T20:22:04.094 [2826:1]: ODE
│   message = dt=0.0
t=1.3636205450253842
max u=1.0509037481832035
│   progress = 0.04545401816751281
└ @ Sundials /home/runner/.julia/packages/Sundials/sg9S0/src/common_interface/solve.jl:1475
┌ LogLevel(-1): 2021-10-14T20:22:04.094 [2826:1]: ODE
│   message = dt=0.0
t=1.3836205450253842
max u=1.0511005570304357
│   progress = 0.04612068483417948
└ @ Sundials /home/runner/.julia/packages/Sundials/sg9S0/src/common_interface/solve.jl:1475
┌ LogLevel(-1): 2021-10-14T20:22:04.094 [2826:1]: ODE
│   message = dt=0.0
t=1.4036205450253842
max u=1.0512694533082054
│   progress = 0.04678735150084614
└ @ Sundials /home/runner/.julia/packages/Sundials/sg9S0/src/common_interface/solve.jl:1475
┌ LogLevel(-1): 2021-10-14T20:22:04.094 [2826:1]: ODE
│   message = dt=0.0
t=1.4236205450253843
max u=1.0514088560460884
│   progress = 0.04745401816751281
└ @ Sundials /home/runner/.julia/packages/Sundials/sg9S0/src/common_interface/solve.jl:1475
┌ LogLevel(-1): 2021-10-14T20:22:04.094 [2826:1]: ODE
│   message = dt=0.0
t=1.4436205450253843
max u=1.0515167848770453
│   progress = 0.04812068483417948
└ @ Sundials /home/runner/.julia/packages/Sundials/sg9S0/src/common_interface/solve.jl:1475
┌ LogLevel(-1): 2021-10-14T20:22:04.094 [2826:1]: ODE
│   message = dt=0.0
t=1.4636205450253843
max u=1.0515924784343147
│   progress = 0.04878735150084614
└ @ Sundials /home/runner/.julia/packages/Sundials/sg9S0/src/common_interface/solve.jl:1475
┌ LogLevel(-1): 2021-10-14T20:22:04.094 [2826:1]: ODE
│   message = dt=0.0
t=1.4836205450253843
max u=1.051637185625822
│   progress = 0.04945401816751281
└ @ Sundials /home/runner/.julia/packages/Sundials/sg9S0/src/common_interface/solve.jl:1475
┌ LogLevel(-1): 2021-10-14T20:22:04.094 [2826:1]: ODE
│   message = dt=0.0
t=1.5036205450253843
max u=1.0516494936315774
│   progress = 0.05012068483417948
└ @ Sundials /home/runner/.julia/packages/Sundials/sg9S0/src/common_interface/solve.jl:1475
┌ LogLevel(-1): 2021-10-14T20:22:04.094 [2826:1]: ODE
│   message = dt=0.0
t=1.5236205450253844
max u=1.0516255176413967
│   progress = 0.050787351500846144
└ @ Sundials /home/runner/.julia/packages/Sundials/sg9S0/src/common_interface/solve.jl:1475
┌ LogLevel(-1): 2021-10-14T20:22:04.094 [2826:1]: ODE
│   message = dt=0.0
t=1.5436205450253844
max u=1.0515701918905556
│   progress = 0.05145401816751281
└ @ Sundials /home/runner/.julia/packages/Sundials/sg9S0/src/common_interface/solve.jl:1475
┌ LogLevel(-1): 2021-10-14T20:22:04.094 [2826:1]: ODE
│   message = dt=0.0
t=1.5636205450253844
max u=1.0514884333293473
│   progress = 0.05212068483417948
└ @ Sundials /home/runner/.julia/packages/Sundials/sg9S0/src/common_interface/solve.jl:1475
┌ LogLevel(-1): 2021-10-14T20:22:04.094 [2826:1]: ODE
│   message = dt=0.0
t=1.5836205450253844
max u=1.051373046753782
│   progress = 0.052787351500846146
└ @ Sundials /home/runner/.julia/packages/Sundials/sg9S0/src/common_interface/solve.jl:1475
┌ LogLevel(-1): 2021-10-14T20:22:04.094 [2826:1]: ODE
│   message = dt=0.0
t=1.6036205450253844
max u=1.051227667324147
│   progress = 0.053454018167512815
└ @ Sundials /home/runner/.julia/packages/Sundials/sg9S0/src/common_interface/solve.jl:1475
┌ LogLevel(-1): 2021-10-14T20:22:04.094 [2826:1]: ODE
│   message = dt=0.0
t=1.6236205450253844
max u=1.051057336507185
│   progress = 0.054120684834179485
└ @ Sundials /home/runner/.julia/packages/Sundials/sg9S0/src/common_interface/solve.jl:1475
┌ LogLevel(-1): 2021-10-14T20:22:04.095 [2826:1]: ODE
│   message = dt=0.0
t=1.6436205450253845
max u=1.0508615834068655
│   progress = 0.05478735150084615
└ @ Sundials /home/runner/.julia/packages/Sundials/sg9S0/src/common_interface/solve.jl:1475
┌ LogLevel(-1): 2021-10-14T20:22:04.095 [2826:1]: ODE
│   message = dt=0.0
t=1.6636205450253845
max u=1.0506414836883782
│   progress = 0.05545401816751282
└ @ Sundials /home/runner/.julia/packages/Sundials/sg9S0/src/common_interface/solve.jl:1475
┌ LogLevel(-1): 2021-10-14T20:22:04.095 [2826:1]: ODE
│   message = dt=0.0
t=1.6836205450253845
max u=1.0504019061867094
│   progress = 0.056120684834179486
└ @ Sundials /home/runner/.julia/packages/Sundials/sg9S0/src/common_interface/solve.jl:1475
┌ LogLevel(-1): 2021-10-14T20:22:04.095 [2826:1]: ODE
│   message = dt=0.0
t=1.7036205450253845
max u=1.0501462354530606
│   progress = 0.05678735150084615
└ @ Sundials /home/runner/.julia/packages/Sundials/sg9S0/src/common_interface/solve.jl:1475
┌ LogLevel(-1): 2021-10-14T20:22:04.095 [2826:1]: ODE
│   message = dt=0.0
t=1.7236205450253845
max u=1.0498764508780885
│   progress = 0.05745401816751282
└ @ Sundials /home/runner/.julia/packages/Sundials/sg9S0/src/common_interface/solve.jl:1475
┌ LogLevel(-1): 2021-10-14T20:22:04.095 [2826:1]: ODE
│   message = dt=0.0
t=1.7436205450253845
max u=1.0495965489548025
│   progress = 0.05812068483417949
└ @ Sundials /home/runner/.julia/packages/Sundials/sg9S0/src/common_interface/solve.jl:1475
┌ LogLevel(-1): 2021-10-14T20:22:04.095 [2826:1]: ODE
│   message = dt=0.0
t=1.7636205450253846
max u=1.0493113817109339
│   progress = 0.05878735150084615
└ @ Sundials /home/runner/.julia/packages/Sundials/sg9S0/src/common_interface/solve.jl:1475
┌ LogLevel(-1): 2021-10-14T20:22:04.095 [2826:1]: ODE
│   message = dt=0.0
t=1.7836205450253846
max u=1.0490243774038768
│   progress = 0.05945401816751282
└ @ Sundials /home/runner/.julia/packages/Sundials/sg9S0/src/common_interface/solve.jl:1475
┌ LogLevel(-1): 2021-10-14T20:22:04.095 [2826:1]: ODE
│   message = dt=0.0
t=1.8036205450253846
max u=1.0487390389307358
│   progress = 0.06012068483417949
└ @ Sundials /home/runner/.julia/packages/Sundials/sg9S0/src/common_interface/solve.jl:1475
┌ LogLevel(-1): 2021-10-14T20:22:04.095 [2826:1]: ODE
│   message = dt=0.0
t=1.8236205450253846
max u=1.0484612430644202
│   progress = 0.06078735150084615
└ @ Sundials /home/runner/.julia/packages/Sundials/sg9S0/src/common_interface/solve.jl:1475
┌ LogLevel(-1): 2021-10-14T20:22:04.095 [2826:1]: ODE
│   message = dt=0.0
t=1.8436205450253846
max u=1.048195971429081
│   progress = 0.06145401816751282
└ @ Sundials /home/runner/.julia/packages/Sundials/sg9S0/src/common_interface/solve.jl:1475
┌ LogLevel(-1): 2021-10-14T20:22:04.095 [2826:1]: ODE
│   message = dt=0.0
t=1.8636205450253847
max u=1.047944522291638
│   progress = 0.06212068483417949
└ @ Sundials /home/runner/.julia/packages/Sundials/sg9S0/src/common_interface/solve.jl:1475
┌ LogLevel(-1): 2021-10-14T20:22:04.095 [2826:1]: ODE
│   message = dt=0.0
t=1.8836205450253847
max u=1.047713268307097
│   progress = 0.06278735150084616
└ @ Sundials /home/runner/.julia/packages/Sundials/sg9S0/src/common_interface/solve.jl:1475
┌ LogLevel(-1): 2021-10-14T20:22:04.095 [2826:1]: ODE
│   message = dt=0.0
t=1.9036205450253847
max u=1.047505387889482
│   progress = 0.06345401816751282
└ @ Sundials /home/runner/.julia/packages/Sundials/sg9S0/src/common_interface/solve.jl:1475
┌ LogLevel(-1): 2021-10-14T20:22:04.096 [2826:1]: ODE
│   message = dt=0.0
t=1.9236205450253847
max u=1.0473243218087291
│   progress = 0.06412068483417949
└ @ Sundials /home/runner/.julia/packages/Sundials/sg9S0/src/common_interface/solve.jl:1475
┌ LogLevel(-1): 2021-10-14T20:22:04.096 [2826:1]: ODE
│   message = dt=0.0
t=1.9436205450253847
max u=1.0471730748190256
│   progress = 0.06478735150084616
└ @ Sundials /home/runner/.julia/packages/Sundials/sg9S0/src/common_interface/solve.jl:1475
┌ LogLevel(-1): 2021-10-14T20:22:04.096 [2826:1]: ODE
│   message = dt=0.0
t=1.9636205450253847
max u=1.0470541883701143
│   progress = 0.06545401816751283
└ @ Sundials /home/runner/.julia/packages/Sundials/sg9S0/src/common_interface/solve.jl:1475
┌ LogLevel(-1): 2021-10-14T20:22:04.096 [2826:1]: ODE
│   message = dt=0.0
t=1.9836205450253848
max u=1.0469696102932864
│   progress = 0.06612068483417949
└ @ Sundials /home/runner/.julia/packages/Sundials/sg9S0/src/common_interface/solve.jl:1475
┌ LogLevel(-1): 2021-10-14T20:22:04.096 [2826:1]: ODE
│   message = dt=0.0
t=2.0036205450253846
max u=1.0469206217200289
│   progress = 0.06678735150084615
└ @ Sundials /home/runner/.julia/packages/Sundials/sg9S0/src/common_interface/solve.jl:1475
┌ LogLevel(-1): 2021-10-14T20:22:04.096 [2826:1]: ODE
│   message = dt=0.0
t=2.0236205450253846
max u=1.046907857715026
│   progress = 0.06745401816751281
└ @ Sundials /home/runner/.julia/packages/Sundials/sg9S0/src/common_interface/solve.jl:1475
┌ LogLevel(-1): 2021-10-14T20:22:04.096 [2826:1]: ODE
│   message = dt=0.0
t=2.0436205450253846
max u=1.046931332767001
│   progress = 0.06812068483417949
└ @ Sundials /home/runner/.julia/packages/Sundials/sg9S0/src/common_interface/solve.jl:1475
┌ LogLevel(-1): 2021-10-14T20:22:04.096 [2826:1]: ODE
│   message = dt=0.0
t=2.0636205450253846
max u=1.0469903888295993
│   progress = 0.06878735150084615
└ @ Sundials /home/runner/.julia/packages/Sundials/sg9S0/src/common_interface/solve.jl:1475
┌ LogLevel(-1): 2021-10-14T20:22:04.096 [2826:1]: ODE
│   message = dt=0.0
t=2.0836205450253846
max u=1.0470837231461536
│   progress = 0.06945401816751282
└ @ Sundials /home/runner/.julia/packages/Sundials/sg9S0/src/common_interface/solve.jl:1475
┌ LogLevel(-1): 2021-10-14T20:22:04.096 [2826:1]: ODE
│   message = dt=0.0
t=2.1036205450253846
max u=1.0472094565423231
│   progress = 0.07012068483417949
└ @ Sundials /home/runner/.julia/packages/Sundials/sg9S0/src/common_interface/solve.jl:1475
┌ LogLevel(-1): 2021-10-14T20:22:04.096 [2826:1]: ODE
│   message = dt=0.0
t=2.1236205450253847
max u=1.0473651531358676
│   progress = 0.07078735150084615
└ @ Sundials /home/runner/.julia/packages/Sundials/sg9S0/src/common_interface/solve.jl:1475
┌ LogLevel(-1): 2021-10-14T20:22:04.096 [2826:1]: ODE
│   message = dt=0.0
t=2.1436205450253847
max u=1.0475478728778835
│   progress = 0.07145401816751282
└ @ Sundials /home/runner/.julia/packages/Sundials/sg9S0/src/common_interface/solve.jl:1475
┌ LogLevel(-1): 2021-10-14T20:22:04.096 [2826:1]: ODE
│   message = dt=0.0
t=2.1636205450253847
max u=1.0477542892683822
│   progress = 0.0721206848341795
└ @ Sundials /home/runner/.julia/packages/Sundials/sg9S0/src/common_interface/solve.jl:1475
┌ LogLevel(-1): 2021-10-14T20:22:04.096 [2826:1]: ODE
│   message = dt=0.0
t=2.1836205450253847
max u=1.0479807625701474
│   progress = 0.07278735150084616
└ @ Sundials /home/runner/.julia/packages/Sundials/sg9S0/src/common_interface/solve.jl:1475
┌ LogLevel(-1): 2021-10-14T20:22:04.096 [2826:1]: ODE
│   message = dt=0.0
t=2.2036205450253847
max u=1.0482233510199936
│   progress = 0.07345401816751282
└ @ Sundials /home/runner/.julia/packages/Sundials/sg9S0/src/common_interface/solve.jl:1475
┌ LogLevel(-1): 2021-10-14T20:22:04.096 [2826:1]: ODE
│   message = dt=0.0
t=2.2236205450253848
max u=1.0484779759611311
│   progress = 0.0741206848341795
└ @ Sundials /home/runner/.julia/packages/Sundials/sg9S0/src/common_interface/solve.jl:1475
┌ LogLevel(-1): 2021-10-14T20:22:04.097 [2826:1]: ODE
│   message = dt=0.0
t=2.2436205450253848
max u=1.0487405699439971
│   progress = 0.07478735150084616
└ @ Sundials /home/runner/.julia/packages/Sundials/sg9S0/src/common_interface/solve.jl:1475
┌ LogLevel(-1): 2021-10-14T20:22:04.097 [2826:1]: ODE
│   message = dt=0.0
t=2.263620545025385
max u=1.049006966361461
│   progress = 0.07545401816751282
└ @ Sundials /home/runner/.julia/packages/Sundials/sg9S0/src/common_interface/solve.jl:1475
┌ LogLevel(-1): 2021-10-14T20:22:04.097 [2826:1]: ODE
│   message = dt=0.0
t=2.283620545025385
max u=1.0492730149480893
│   progress = 0.0761206848341795
└ @ Sundials /home/runner/.julia/packages/Sundials/sg9S0/src/common_interface/solve.jl:1475
┌ LogLevel(-1): 2021-10-14T20:22:04.097 [2826:1]: ODE
│   message = dt=0.0
t=2.303620545025385
max u=1.0495349606473685
│   progress = 0.07678735150084616
└ @ Sundials /home/runner/.julia/packages/Sundials/sg9S0/src/common_interface/solve.jl:1475
┌ LogLevel(-1): 2021-10-14T20:22:04.097 [2826:1]: ODE
│   message = dt=0.0
t=2.323620545025385
max u=1.0497891660236682
│   progress = 0.07745401816751282
└ @ Sundials /home/runner/.julia/packages/Sundials/sg9S0/src/common_interface/solve.jl:1475
┌ LogLevel(-1): 2021-10-14T20:22:04.097 [2826:1]: ODE
│   message = dt=0.0
t=2.343620545025385
max u=1.0500318697934647
│   progress = 0.0781206848341795
└ @ Sundials /home/runner/.julia/packages/Sundials/sg9S0/src/common_interface/solve.jl:1475
┌ LogLevel(-1): 2021-10-14T20:22:04.097 [2826:1]: ODE
│   message = dt=0.0
t=2.363620545025385
max u=1.0502600591881888
│   progress = 0.07878735150084616
└ @ Sundials /home/runner/.julia/packages/Sundials/sg9S0/src/common_interface/solve.jl:1475
┌ LogLevel(-1): 2021-10-14T20:22:04.097 [2826:1]: ODE
│   message = dt=0.0
t=2.383620545025385
max u=1.0504712082631655
│   progress = 0.07945401816751282
└ @ Sundials /home/runner/.julia/packages/Sundials/sg9S0/src/common_interface/solve.jl:1475
┌ LogLevel(-1): 2021-10-14T20:22:04.097 [2826:1]: ODE
│   message = dt=0.0
t=2.403620545025385
max u=1.0506624486852458
│   progress = 0.0801206848341795
└ @ Sundials /home/runner/.julia/packages/Sundials/sg9S0/src/common_interface/solve.jl:1475
┌ LogLevel(-1): 2021-10-14T20:22:04.097 [2826:1]: ODE
│   message = dt=0.0
t=2.423620545025385
max u=1.0508314892686996
│   progress = 0.08078735150084616
└ @ Sundials /home/runner/.julia/packages/Sundials/sg9S0/src/common_interface/solve.jl:1475
┌ LogLevel(-1): 2021-10-14T20:22:04.097 [2826:1]: ODE
│   message = dt=0.0
t=2.443620545025385
max u=1.0509768293865063
│   progress = 0.08145401816751283
└ @ Sundials /home/runner/.julia/packages/Sundials/sg9S0/src/common_interface/solve.jl:1475
┌ LogLevel(-1): 2021-10-14T20:22:04.097 [2826:1]: ODE
│   message = dt=0.0
t=2.463620545025385
max u=1.0510968207537337
│   progress = 0.0821206848341795
└ @ Sundials /home/runner/.julia/packages/Sundials/sg9S0/src/common_interface/solve.jl:1475
┌ LogLevel(-1): 2021-10-14T20:22:04.097 [2826:1]: ODE
│   message = dt=0.0
t=2.483620545025385
max u=1.0511900870998805
│   progress = 0.08278735150084617
└ @ Sundials /home/runner/.julia/packages/Sundials/sg9S0/src/common_interface/solve.jl:1475
┌ LogLevel(-1): 2021-10-14T20:22:04.097 [2826:1]: ODE
│   message = dt=0.0
t=2.503620545025385
max u=1.051256033257534
│   progress = 0.08345401816751283
└ @ Sundials /home/runner/.julia/packages/Sundials/sg9S0/src/common_interface/solve.jl:1475
┌ LogLevel(-1): 2021-10-14T20:22:04.098 [2826:1]: ODE
│   message = dt=0.0
t=2.523620545025385
max u=1.0512940875747345
│   progress = 0.0841206848341795
└ @ Sundials /home/runner/.julia/packages/Sundials/sg9S0/src/common_interface/solve.jl:1475
┌ LogLevel(-1): 2021-10-14T20:22:04.098 [2826:1]: ODE
│   message = dt=0.0
t=2.543620545025385
max u=1.0513038020227239
│   progress = 0.08478735150084617
└ @ Sundials /home/runner/.julia/packages/Sundials/sg9S0/src/common_interface/solve.jl:1475
┌ LogLevel(-1): 2021-10-14T20:22:04.098 [2826:1]: ODE
│   message = dt=0.0
t=2.563620545025385
max u=1.0512855669203993
│   progress = 0.08545401816751283
└ @ Sundials /home/runner/.julia/packages/Sundials/sg9S0/src/common_interface/solve.jl:1475
┌ LogLevel(-1): 2021-10-14T20:22:04.098 [2826:1]: ODE
│   message = dt=0.0
t=2.583620545025385
max u=1.0512398407866559
│   progress = 0.0861206848341795
└ @ Sundials /home/runner/.julia/packages/Sundials/sg9S0/src/common_interface/solve.jl:1475
┌ LogLevel(-1): 2021-10-14T20:22:04.098 [2826:1]: ODE
│   message = dt=0.0
t=2.603620545025385
max u=1.0511665962150065
│   progress = 0.08678735150084617
└ @ Sundials /home/runner/.julia/packages/Sundials/sg9S0/src/common_interface/solve.jl:1475
┌ LogLevel(-1): 2021-10-14T20:22:04.098 [2826:1]: ODE
│   message = dt=0.0
t=2.623620545025385
max u=1.0510672033618398
│   progress = 0.08745401816751283
└ @ Sundials /home/runner/.julia/packages/Sundials/sg9S0/src/common_interface/solve.jl:1475
┌ LogLevel(-1): 2021-10-14T20:22:04.098 [2826:1]: ODE
│   message = dt=0.0
t=2.643620545025385
max u=1.0509438641123514
│   progress = 0.08812068483417951
└ @ Sundials /home/runner/.julia/packages/Sundials/sg9S0/src/common_interface/solve.jl:1475
┌ LogLevel(-1): 2021-10-14T20:22:04.098 [2826:1]: ODE
│   message = dt=0.0
t=2.663620545025385
max u=1.0507966611867843
│   progress = 0.08878735150084617
└ @ Sundials /home/runner/.julia/packages/Sundials/sg9S0/src/common_interface/solve.jl:1475
┌ LogLevel(-1): 2021-10-14T20:22:04.098 [2826:1]: ODE
│   message = dt=0.0
t=2.683620545025385
max u=1.0506269976119542
│   progress = 0.08945401816751283
└ @ Sundials /home/runner/.julia/packages/Sundials/sg9S0/src/common_interface/solve.jl:1475
┌ LogLevel(-1): 2021-10-14T20:22:04.098 [2826:1]: ODE
│   message = dt=0.0
t=2.703620545025385
max u=1.050439945328512
│   progress = 0.09012068483417951
└ @ Sundials /home/runner/.julia/packages/Sundials/sg9S0/src/common_interface/solve.jl:1475
┌ LogLevel(-1): 2021-10-14T20:22:04.098 [2826:1]: ODE
│   message = dt=0.0
t=2.723620545025385
max u=1.0502358881629825
│   progress = 0.09078735150084617
└ @ Sundials /home/runner/.julia/packages/Sundials/sg9S0/src/common_interface/solve.jl:1475
┌ LogLevel(-1): 2021-10-14T20:22:04.098 [2826:1]: ODE
│   message = dt=0.0
t=2.743620545025385
max u=1.0500162102928505
│   progress = 0.09145401816751283
└ @ Sundials /home/runner/.julia/packages/Sundials/sg9S0/src/common_interface/solve.jl:1475
┌ LogLevel(-1): 2021-10-14T20:22:04.098 [2826:1]: ODE
│   message = dt=0.0
t=2.7636205450253852
max u=1.049786532546372
│   progress = 0.09212068483417951
└ @ Sundials /home/runner/.julia/packages/Sundials/sg9S0/src/common_interface/solve.jl:1475
┌ LogLevel(-1): 2021-10-14T20:22:04.098 [2826:1]: ODE
│   message = dt=0.0
t=2.7836205450253853
max u=1.0495494706753656
│   progress = 0.09278735150084617
└ @ Sundials /home/runner/.julia/packages/Sundials/sg9S0/src/common_interface/solve.jl:1475
┌ LogLevel(-1): 2021-10-14T20:22:04.098 [2826:1]: ODE
│   message = dt=0.0
t=2.8036205450253853
max u=1.0493065171928821
│   progress = 0.09345401816751284
└ @ Sundials /home/runner/.julia/packages/Sundials/sg9S0/src/common_interface/solve.jl:1475
┌ LogLevel(-1): 2021-10-14T20:22:04.098 [2826:1]: ODE
│   message = dt=0.0
t=2.8236205450253853
max u=1.0490632895933136
│   progress = 0.09412068483417951
└ @ Sundials /home/runner/.julia/packages/Sundials/sg9S0/src/common_interface/solve.jl:1475
┌ LogLevel(-1): 2021-10-14T20:22:04.099 [2826:1]: ODE
│   message = dt=0.0
t=2.8436205450253853
max u=1.0488224969319235
│   progress = 0.09478735150084618
└ @ Sundials /home/runner/.julia/packages/Sundials/sg9S0/src/common_interface/solve.jl:1475
┌ LogLevel(-1): 2021-10-14T20:22:04.099 [2826:1]: ODE
│   message = dt=0.0
t=2.8636205450253853
max u=1.0485879175882424
│   progress = 0.09545401816751284
└ @ Sundials /home/runner/.julia/packages/Sundials/sg9S0/src/common_interface/solve.jl:1475
┌ LogLevel(-1): 2021-10-14T20:22:04.099 [2826:1]: ODE
│   message = dt=0.0
t=2.8836205450253853
max u=1.048363169187319
│   progress = 0.09612068483417952
└ @ Sundials /home/runner/.julia/packages/Sundials/sg9S0/src/common_interface/solve.jl:1475
┌ LogLevel(-1): 2021-10-14T20:22:04.099 [2826:1]: ODE
│   message = dt=0.0
t=2.9036205450253854
max u=1.0481517786287804
│   progress = 0.09678735150084618
└ @ Sundials /home/runner/.julia/packages/Sundials/sg9S0/src/common_interface/solve.jl:1475
┌ LogLevel(-1): 2021-10-14T20:22:04.099 [2826:1]: ODE
│   message = dt=0.0
t=2.9236205450253854
max u=1.047957139425131
│   progress = 0.09745401816751284
└ @ Sundials /home/runner/.julia/packages/Sundials/sg9S0/src/common_interface/solve.jl:1475
┌ LogLevel(-1): 2021-10-14T20:22:04.099 [2826:1]: ODE
│   message = dt=0.0
t=2.9436205450253854
max u=1.0477823788577476
│   progress = 0.09812068483417952
└ @ Sundials /home/runner/.julia/packages/Sundials/sg9S0/src/common_interface/solve.jl:1475
┌ LogLevel(-1): 2021-10-14T20:22:04.099 [2826:1]: ODE
│   message = dt=0.0
t=2.9636205450253854
max u=1.0476303150337984
│   progress = 0.09878735150084618
└ @ Sundials /home/runner/.julia/packages/Sundials/sg9S0/src/common_interface/solve.jl:1475
┌ LogLevel(-1): 2021-10-14T20:22:04.099 [2826:1]: ODE
│   message = dt=0.0
t=2.9836205450253854
max u=1.0475033996452336
│   progress = 0.09945401816751284
└ @ Sundials /home/runner/.julia/packages/Sundials/sg9S0/src/common_interface/solve.jl:1475
┌ LogLevel(-1): 2021-10-14T20:22:04.099 [2826:1]: ODE
│   message = dt=0.0
t=3.0036205450253854
max u=1.0474036651037526
│   progress = 0.10012068483417952
└ @ Sundials /home/runner/.julia/packages/Sundials/sg9S0/src/common_interface/solve.jl:1475
┌ LogLevel(-1): 2021-10-14T20:22:04.099 [2826:1]: ODE
│   message = dt=0.0
t=3.0236205450253855
max u=1.0473326747734166
│   progress = 0.10078735150084618
└ @ Sundials /home/runner/.julia/packages/Sundials/sg9S0/src/common_interface/solve.jl:1475
┌ LogLevel(-1): 2021-10-14T20:22:04.099 [2826:1]: ODE
│   message = dt=0.0
t=3.0436205450253855
max u=1.0472914927969845
│   progress = 0.10145401816751284
└ @ Sundials /home/runner/.julia/packages/Sundials/sg9S0/src/common_interface/solve.jl:1475
┌ LogLevel(-1): 2021-10-14T20:22:04.099 [2826:1]: ODE
│   message = dt=0.0
t=3.0636205450253855
max u=1.0472806602709681
│   progress = 0.10212068483417952
└ @ Sundials /home/runner/.julia/packages/Sundials/sg9S0/src/common_interface/solve.jl:1475
┌ LogLevel(-1): 2021-10-14T20:22:04.099 [2826:1]: ODE
│   message = dt=0.0
t=3.0836205450253855
max u=1.0473001698444053
│   progress = 0.10278735150084618
└ @ Sundials /home/runner/.julia/packages/Sundials/sg9S0/src/common_interface/solve.jl:1475
┌ LogLevel(-1): 2021-10-14T20:22:04.099 [2826:1]: ODE
│   message = dt=0.0
t=3.1036205450253855
max u=1.0473494783608779
│   progress = 0.10345401816751285
└ @ Sundials /home/runner/.julia/packages/Sundials/sg9S0/src/common_interface/solve.jl:1475
┌ LogLevel(-1): 2021-10-14T20:22:04.099 [2826:1]: ODE
│   message = dt=0.0
t=3.1236205450253856
max u=1.0474275418196524
│   progress = 0.10412068483417952
└ @ Sundials /home/runner/.julia/packages/Sundials/sg9S0/src/common_interface/solve.jl:1475
┌ LogLevel(-1): 2021-10-14T20:22:04.099 [2826:1]: ODE
│   message = dt=0.0
t=3.1436205450253856
max u=1.047532820382611
│   progress = 0.10478735150084618
└ @ Sundials /home/runner/.julia/packages/Sundials/sg9S0/src/common_interface/solve.jl:1475
┌ LogLevel(-1): 2021-10-14T20:22:04.100 [2826:1]: ODE
│   message = dt=0.0
t=3.1636205450253856
max u=1.047663298490121
│   progress = 0.10545401816751285
└ @ Sundials /home/runner/.julia/packages/Sundials/sg9S0/src/common_interface/solve.jl:1475
┌ LogLevel(-1): 2021-10-14T20:22:04.100 [2826:1]: ODE
│   message = dt=0.0
t=3.1836205450253856
max u=1.047816594270788
│   progress = 0.10612068483417952
└ @ Sundials /home/runner/.julia/packages/Sundials/sg9S0/src/common_interface/solve.jl:1475
┌ LogLevel(-1): 2021-10-14T20:22:04.100 [2826:1]: ODE
│   message = dt=0.0
t=3.2036205450253856
max u=1.0479899984801408
│   progress = 0.10678735150084619
└ @ Sundials /home/runner/.julia/packages/Sundials/sg9S0/src/common_interface/solve.jl:1475
┌ LogLevel(-1): 2021-10-14T20:22:04.100 [2826:1]: ODE
│   message = dt=0.0
t=3.2236205450253856
max u=1.0481804494929214
│   progress = 0.10745401816751285
└ @ Sundials /home/runner/.julia/packages/Sundials/sg9S0/src/common_interface/solve.jl:1475
┌ LogLevel(-1): 2021-10-14T20:22:04.100 [2826:1]: ODE
│   message = dt=0.0
t=3.2436205450253857
max u=1.0483847049570276
│   progress = 0.10812068483417953
└ @ Sundials /home/runner/.julia/packages/Sundials/sg9S0/src/common_interface/solve.jl:1475
┌ LogLevel(-1): 2021-10-14T20:22:04.100 [2826:1]: ODE
│   message = dt=0.0
t=3.2636205450253857
max u=1.0485994865078774
│   progress = 0.10878735150084619
└ @ Sundials /home/runner/.julia/packages/Sundials/sg9S0/src/common_interface/solve.jl:1475
┌ LogLevel(-1): 2021-10-14T20:22:04.100 [2826:1]: ODE
│   message = dt=0.0
t=3.2836205450253857
max u=1.0488212937775854
│   progress = 0.10945401816751285
└ @ Sundials /home/runner/.julia/packages/Sundials/sg9S0/src/common_interface/solve.jl:1475
┌ LogLevel(-1): 2021-10-14T20:22:04.100 [2826:1]: ODE
│   message = dt=0.0
t=3.3036205450253857
max u=1.0490465426581528
│   progress = 0.11012068483417953
└ @ Sundials /home/runner/.julia/packages/Sundials/sg9S0/src/common_interface/solve.jl:1475
┌ LogLevel(-1): 2021-10-14T20:22:04.100 [2826:1]: ODE
│   message = dt=0.0
t=3.3236205450253857
max u=1.0492720206429407
│   progress = 0.11078735150084619
└ @ Sundials /home/runner/.julia/packages/Sundials/sg9S0/src/common_interface/solve.jl:1475
┌ LogLevel(-1): 2021-10-14T20:22:04.100 [2826:1]: ODE
│   message = dt=0.0
t=3.3436205450253857
max u=1.049494486599152
│   progress = 0.11145401816751285
└ @ Sundials /home/runner/.julia/packages/Sundials/sg9S0/src/common_interface/solve.jl:1475
┌ LogLevel(-1): 2021-10-14T20:22:04.100 [2826:1]: ODE
│   message = dt=0.0
t=3.3636205450253858
max u=1.0497103808467168
│   progress = 0.11212068483417953
└ @ Sundials /home/runner/.julia/packages/Sundials/sg9S0/src/common_interface/solve.jl:1475
┌ LogLevel(-1): 2021-10-14T20:22:04.100 [2826:1]: ODE
│   message = dt=0.0
t=3.383620545025386
max u=1.049916964110184
│   progress = 0.11278735150084619
└ @ Sundials /home/runner/.julia/packages/Sundials/sg9S0/src/common_interface/solve.jl:1475
┌ LogLevel(-1): 2021-10-14T20:22:04.100 [2826:1]: ODE
│   message = dt=0.0
t=3.403620545025386
max u=1.0501118877088418
│   progress = 0.11345401816751285
└ @ Sundials /home/runner/.julia/packages/Sundials/sg9S0/src/common_interface/solve.jl:1475
┌ LogLevel(-1): 2021-10-14T20:22:04.100 [2826:1]: ODE
│   message = dt=0.0
t=3.423620545025386
max u=1.050292222243794
│   progress = 0.11412068483417953
└ @ Sundials /home/runner/.julia/packages/Sundials/sg9S0/src/common_interface/solve.jl:1475
┌ LogLevel(-1): 2021-10-14T20:22:04.100 [2826:1]: ODE
│   message = dt=0.0
t=3.443620545025386
max u=1.0504556406202268
│   progress = 0.1147873515008462
└ @ Sundials /home/runner/.julia/packages/Sundials/sg9S0/src/common_interface/solve.jl:1475
┌ LogLevel(-1): 2021-10-14T20:22:04.100 [2826:1]: ODE
│   message = dt=0.0
t=3.463620545025386
max u=1.0506006340327179
│   progress = 0.11545401816751286
└ @ Sundials /home/runner/.julia/packages/Sundials/sg9S0/src/common_interface/solve.jl:1475
┌ LogLevel(-1): 2021-10-14T20:22:04.101 [2826:1]: ODE
│   message = dt=0.0
t=3.483620545025386
max u=1.050725365841217
│   progress = 0.11612068483417953
└ @ Sundials /home/runner/.julia/packages/Sundials/sg9S0/src/common_interface/solve.jl:1475
┌ LogLevel(-1): 2021-10-14T20:22:04.101 [2826:1]: ODE
│   message = dt=0.0
t=3.503620545025386
max u=1.0508282431711518
│   progress = 0.1167873515008462
└ @ Sundials /home/runner/.julia/packages/Sundials/sg9S0/src/common_interface/solve.jl:1475
┌ LogLevel(-1): 2021-10-14T20:22:04.101 [2826:1]: ODE
│   message = dt=0.0
t=3.523620545025386
max u=1.0509085228750719
│   progress = 0.11745401816751286
└ @ Sundials /home/runner/.julia/packages/Sundials/sg9S0/src/common_interface/solve.jl:1475
┌ LogLevel(-1): 2021-10-14T20:22:04.101 [2826:1]: ODE
│   message = dt=0.0
t=3.543620545025386
max u=1.050965366491896
│   progress = 0.11812068483417953
└ @ Sundials /home/runner/.julia/packages/Sundials/sg9S0/src/common_interface/solve.jl:1475
┌ LogLevel(-1): 2021-10-14T20:22:04.101 [2826:1]: ODE
│   message = dt=0.0
t=3.563620545025386
max u=1.0509980069041875
│   progress = 0.1187873515008462
└ @ Sundials /home/runner/.julia/packages/Sundials/sg9S0/src/common_interface/solve.jl:1475
┌ LogLevel(-1): 2021-10-14T20:22:04.101 [2826:1]: ODE
│   message = dt=0.0
t=3.583620545025386
max u=1.0510066367711337
│   progress = 0.11945401816751286
└ @ Sundials /home/runner/.julia/packages/Sundials/sg9S0/src/common_interface/solve.jl:1475
┌ LogLevel(-1): 2021-10-14T20:22:04.101 [2826:1]: ODE
│   message = dt=0.0
t=3.603620545025386
max u=1.0509913946423624
│   progress = 0.12012068483417954
└ @ Sundials /home/runner/.julia/packages/Sundials/sg9S0/src/common_interface/solve.jl:1475
┌ LogLevel(-1): 2021-10-14T20:22:04.101 [2826:1]: ODE
│   message = dt=0.0
t=3.623620545025386
max u=1.050951727446829
│   progress = 0.1207873515008462
└ @ Sundials /home/runner/.julia/packages/Sundials/sg9S0/src/common_interface/solve.jl:1475
┌ LogLevel(-1): 2021-10-14T20:22:04.101 [2826:1]: ODE
│   message = dt=0.0
t=3.643620545025386
max u=1.0508887913860734
│   progress = 0.12145401816751286
└ @ Sundials /home/runner/.julia/packages/Sundials/sg9S0/src/common_interface/solve.jl:1475
┌ LogLevel(-1): 2021-10-14T20:22:04.101 [2826:1]: ODE
│   message = dt=0.0
t=3.663620545025386
max u=1.0508042025399047
│   progress = 0.12212068483417954
└ @ Sundials /home/runner/.julia/packages/Sundials/sg9S0/src/common_interface/solve.jl:1475
┌ LogLevel(-1): 2021-10-14T20:22:04.101 [2826:1]: ODE
│   message = dt=0.0
t=3.683620545025386
max u=1.0506981293501514
│   progress = 0.1227873515008462
└ @ Sundials /home/runner/.julia/packages/Sundials/sg9S0/src/common_interface/solve.jl:1475
┌ LogLevel(-1): 2021-10-14T20:22:04.101 [2826:1]: ODE
│   message = dt=0.0
t=3.703620545025386
max u=1.0505717998554966
│   progress = 0.12345401816751286
└ @ Sundials /home/runner/.julia/packages/Sundials/sg9S0/src/common_interface/solve.jl:1475
┌ LogLevel(-1): 2021-10-14T20:22:04.101 [2826:1]: ODE
│   message = dt=0.0
t=3.723620545025386
max u=1.0504277434377223
│   progress = 0.12412068483417954
└ @ Sundials /home/runner/.julia/packages/Sundials/sg9S0/src/common_interface/solve.jl:1475
┌ LogLevel(-1): 2021-10-14T20:22:04.101 [2826:1]: ODE
│   message = dt=0.0
t=3.743620545025386
max u=1.0502674317921274
│   progress = 0.1247873515008462
└ @ Sundials /home/runner/.julia/packages/Sundials/sg9S0/src/common_interface/solve.jl:1475
┌ LogLevel(-1): 2021-10-14T20:22:04.101 [2826:1]: ODE
│   message = dt=0.0
t=3.763620545025386
max u=1.0500925563207952
│   progress = 0.12545401816751287
└ @ Sundials /home/runner/.julia/packages/Sundials/sg9S0/src/common_interface/solve.jl:1475
┌ LogLevel(-1): 2021-10-14T20:22:04.102 [2826:1]: ODE
│   message = dt=0.0
t=3.783620545025386
max u=1.0499061638256586
│   progress = 0.12612068483417954
└ @ Sundials /home/runner/.julia/packages/Sundials/sg9S0/src/common_interface/solve.jl:1475
┌ LogLevel(-1): 2021-10-14T20:22:04.102 [2826:1]: ODE
│   message = dt=0.0
t=3.803620545025386
max u=1.0497106789491464
│   progress = 0.12678735150084622
└ @ Sundials /home/runner/.julia/packages/Sundials/sg9S0/src/common_interface/solve.jl:1475
┌ LogLevel(-1): 2021-10-14T20:22:04.102 [2826:1]: ODE
│   message = dt=0.0
t=3.823620545025386
max u=1.0495085685062189
│   progress = 0.12745401816751287
└ @ Sundials /home/runner/.julia/packages/Sundials/sg9S0/src/common_interface/solve.jl:1475
┌ LogLevel(-1): 2021-10-14T20:22:04.102 [2826:1]: ODE
│   message = dt=0.0
t=3.843620545025386
max u=1.04930287653198
│   progress = 0.12812068483417954
└ @ Sundials /home/runner/.julia/packages/Sundials/sg9S0/src/common_interface/solve.jl:1475
┌ LogLevel(-1): 2021-10-14T20:22:04.102 [2826:1]: ODE
│   message = dt=0.0
t=3.863620545025386
max u=1.0490967017576456
│   progress = 0.12878735150084622
└ @ Sundials /home/runner/.julia/packages/Sundials/sg9S0/src/common_interface/solve.jl:1475
┌ LogLevel(-1): 2021-10-14T20:22:04.102 [2826:1]: ODE
│   message = dt=0.0
t=3.8836205450253862
max u=1.0488929000876082
│   progress = 0.12945401816751287
...